%nproc=48
%mem=50gb
%chk=/work2/07299/hangdang/stampede2/sample/example.chk
#p pw6b95d3/def2tzvp empiricaldispersion=gd3bj nosymm int=ultrafine scrf=(solvent=tetrahydrofuran,smd) opt=(tight) freq 

example

0 1 
 N                 -1.37354348   -2.40202386   -1.18997067
 C                 -1.13116557   -0.11016554   -0.93987126
 C                 -1.89674276    0.22506830   -2.12609024
 C                 -2.37580605   -0.95365184   -2.78631499
 N                 -2.13290766   -2.16245241   -2.35472980
 H                 -2.96734795   -0.89795410   -3.68515034
 N                 -0.93720947   -1.36679572   -0.58075107
 O                 -2.54589308   -3.20576733   -2.92705794
 C                 -0.53598155    0.90550921   -0.07997412
 O                  0.14278156    0.40416802    0.96464718
 O                 -0.62768861    2.10246958   -0.26470208
 C                  0.74830364    1.36786271    1.82710668
 H                  1.43454009    1.98442302    1.24986161
 H                 -0.02158458    2.02279314    2.23035027
 C                  1.46264274    0.61976298    2.91702558
 H                  0.76870827    0.01064368    3.49109352
 H                  2.23107063   -0.02955309    2.50471527
 H                  1.93847906    1.32603892    3.59370418
 C                 -2.18561178    1.44258709   -2.64042835
 H                 -1.84895601    2.35166004   -2.18154392
 H                 -2.77494146    1.50256913   -3.54393258
 H                 -1.79574416   -3.73099346   -3.21517965




